60

C          0.00000        0.00000        0.00000
C          0.00000        2.49415        0.00000
C          0.00000        4.98831        0.00000
C          0.00000        7.48246        0.00000
C          0.00000        9.97661        0.00000
C          0.00000        0.00000        1.44000
C          0.00000        2.49415        1.44000
C          0.00000        4.98831        1.44000
C          0.00000        7.48246        1.44000
C          0.00000        9.97661        1.44000
C          0.00000        1.24708        2.16000
C          0.00000        3.74123        2.16000
C          0.00000        6.23538        2.16000
C          0.00000        8.72954        2.16000
C          0.00000       11.22369        2.16000
C          0.00000        1.24708        3.60000
C          0.00000        3.74123        3.60000
C          0.00000        6.23538        3.60000
C          0.00000        8.72954        3.60000
C          0.00000       11.22369        3.60000
C          0.00000        0.00000        4.32000
C          0.00000        2.49415        4.32000
C          0.00000        4.98831        4.32000
C          0.00000        7.48246        4.32000
C          0.00000        9.97661        4.32000
C          0.00000        0.00000        5.76000
C          0.00000        2.49415        5.76000
C          0.00000        4.98831        5.76000
C          0.00000        7.48246        5.76000
C          0.00000        9.97661        5.76000
C          0.00000        1.24708        6.48000
C          0.00000        3.74123        6.48000
C          0.00000        6.23538        6.48000
C          0.00000        8.72954        6.48000
C          0.00000       11.22369        6.48000
C          0.00000        1.24708        7.92000
C          0.00000        3.74123        7.92000
C          0.00000        6.23538        7.92000
C          0.00000        8.72954        7.92000
C          0.00000       11.22369        7.92000
C          0.00000        0.00000        8.64000
C          0.00000        2.49415        8.64000
C          0.00000        4.98831        8.64000
C          0.00000        7.48246        8.64000
C          0.00000        9.97661        8.64000
C          0.00000        0.00000       10.08000
C          0.00000        2.49415       10.08000
C          0.00000        4.98831       10.08000
C          0.00000        7.48246       10.08000
C          0.00000        9.97661       10.08000
C          0.00000        1.24708       10.80000
C          0.00000        3.74123       10.80000
C          0.00000        6.23538       10.80000
C          0.00000        8.72954       10.80000
C          0.00000       11.22369       10.80000
C          0.00000        1.24708       12.24000
C          0.00000        3.74123       12.24000
C          0.00000        6.23538       12.24000
C          0.00000        8.72954       12.24000
C          0.00000       11.22369       12.24000
